# [General] Inicialmente sรณ veio isso
[General]
network = projeto_protocols_sim.HelloNetwork
sim-time-limit = 10s