# [General] Inicialmente sรณ veio isso
[General]
network = HelloNetwork
sim-time-limit = 10s